
     RDKit          3D

 21 21  0  0  0  0  0  0  0  0999 V2000
    3.2959    0.7838   -0.5048 C   0  0  0  0  0  0  0  0  0  0  0  0
   -2.6951   -1.5226    0.1205 C   0  0  0  0  0  0  0  0  0  0  0  0
   -1.9242   -2.0282   -0.8991 C   0  0  0  0  0  0  0  0  0  0  0  0
   -2.3051   -0.3769    0.8240 C   0  0  0  0  0  0  0  0  0  0  0  0
   -0.7544   -1.3648   -1.2018 C   0  0  0  0  0  0  0  0  0  0  0  0
    2.0317    0.0996   -0.2036 C   0  0  0  0  0  0  0  0  0  0  0  0
   -1.1314    0.2642    0.4989 C   0  0  0  0  0  0  0  0  0  0  0  0
   -0.3557   -0.2343   -0.5183 C   0  0  0  0  0  0  0  0  0  0  0  0
   -0.6904    1.4510    1.1997 C   0  0  0  0  0  0  0  0  0  0  0  0
    1.9639   -0.8374    0.6422 O   0  0  0  0  0  0  0  0  0  0  0  0
   -1.4085    1.8959    2.1269 O   0  0  0  0  0  0  0  0  0  0  0  0
    0.4826    2.1220    0.9010 O   0  0  0  0  0  0  0  0  0  0  0  0
    0.8196    0.4301   -0.8243 O   0  0  0  0  0  0  0  0  0  0  0  0
    3.6458    0.6045   -1.5531 H   0  0  0  0  0  0  0  0  0  0  0  0
    3.2391    1.8942   -0.3169 H   0  0  0  0  0  0  0  0  0  0  0  0
    4.0841    0.3535    0.1460 H   0  0  0  0  0  0  0  0  0  0  0  0
   -3.6192   -2.0135    0.3886 H   0  0  0  0  0  0  0  0  0  0  0  0
   -2.2100   -2.9216   -1.4613 H   0  0  0  0  0  0  0  0  0  0  0  0
   -2.9079    0.0200    1.6227 H   0  0  0  0  0  0  0  0  0  0  0  0
   -0.1376   -1.7581   -2.0080 H   0  0  0  0  0  0  0  0  0  0  0  0
    0.5767    3.1384    1.0207 H   0  0  0  0  0  0  0  0  0  0  0  0
  1  6  1  0
  2  3  2  0
  2  4  1  0
  3  5  1  0
  4  7  2  0
  5  8  2  0
  6 10  2  0
  6 13  1  0
  7  8  1  0
  7  9  1  0
  8 13  1  0
  9 11  2  0
  9 12  1  0
  1 14  1  0
  1 15  1  0
  1 16  1  0
  2 17  1  0
  3 18  1  0
  4 19  1  0
  5 20  1  0
 12 21  1  0
M  END
